2762604
  -OEChem-12141915453D

 54 57  0     0  0  0  0  0  0999 V2000
   -1.5953    2.1338   -0.3688 O   0  0  0  0  0  0  0  0  0  0  0  0
    1.7119   -1.1504    3.7415 O   0  0  0  0  0  0  0  0  0  0  0  0
   -0.2375   -0.4536    2.8258 O   0  0  0  0  0  0  0  0  0  0  0  0
    2.4594   -3.3708   -3.0776 O   0  5  0  0  0  0  0  0  0  0  0  0
    3.5588   -4.8127   -1.7321 O   0  0  0  0  0  0  0  0  0  0  0  0
    2.2618    4.9017   -0.4080 N   0  3  0  0  0  0  0  0  0  0  0  0
   -5.5932   -0.4825   -0.3512 N   0  0  0  0  0  0  0  0  0  0  0  0
    0.0963   -0.1435    0.0325 C   0  0  0  0  0  0  0  0  0  0  0  0
    0.6415    1.0990   -0.0765 C   0  0  0  0  0  0  0  0  0  0  0  0
   -1.3818   -0.2583   -0.0635 C   0  0  0  0  0  0  0  0  0  0  0  0
   -0.2179    2.2773   -0.2823 C   0  0  0  0  0  0  0  0  0  0  0  0
   -2.1512    0.8881   -0.2598 C   0  0  0  0  0  0  0  0  0  0  0  0
    0.9694   -1.3051    0.2372 C   0  0  0  0  0  0  0  0  0  0  0  0
    2.0920    1.3268    0.0039 C   0  0  0  0  0  0  0  0  0  0  0  0
   -2.0478   -1.4911    0.0360 C   0  0  0  0  0  0  0  0  0  0  0  0
    0.2987    3.5109   -0.3910 C   0  0  0  0  0  0  0  0  0  0  0  0
   -3.5447    0.8201   -0.3557 C   0  0  0  0  0  0  0  0  0  0  0  0
    1.7620    3.7233   -0.3059 C   0  0  0  0  0  0  0  0  0  0  0  0
   -4.1891   -0.4089   -0.2551 C   0  0  0  0  0  0  0  0  0  0  0  0
    1.3097   -1.7312    1.5154 C   0  0  0  0  0  0  0  0  0  0  0  0
    2.6348    2.5467   -0.1015 C   0  0  0  0  0  0  0  0  0  0  0  0
   -3.4404   -1.5649   -0.0591 C   0  0  0  0  0  0  0  0  0  0  0  0
    1.4502   -1.9706   -0.8845 C   0  0  0  0  0  0  0  0  0  0  0  0
    2.2831   -3.0781   -0.7255 C   0  0  0  0  0  0  0  0  0  0  0  0
    2.1427   -2.8386    1.6746 C   0  0  0  0  0  0  0  0  0  0  0  0
    2.6295   -3.5120    0.5542 C   0  0  0  0  0  0  0  0  0  0  0  0
    1.4013    6.0950   -0.6134 C   0  0  0  0  0  0  0  0  0  0  0  0
    3.7269    5.1335   -0.3260 C   0  0  0  0  0  0  0  0  0  0  0  0
    0.8266   -1.0522    2.7120 C   0  0  0  0  0  0  0  0  0  0  0  0
   -6.2711   -1.7600   -0.2470 C   0  0  0  0  0  0  0  0  0  0  0  0
   -6.3809    0.7199   -0.5415 C   0  0  0  0  0  0  0  0  0  0  0  0
    2.7941   -3.7913   -1.9072 C   0  0  0  0  0  0  0  0  0  0  0  0
    2.7700    0.4936    0.1540 H   0  0  0  0  0  0  0  0  0  0  0  0
   -1.5004   -2.4177    0.1898 H   0  0  0  0  0  0  0  0  0  0  0  0
   -0.3784    4.3438   -0.5415 H   0  0  0  0  0  0  0  0  0  0  0  0
   -4.0858    1.7494   -0.5088 H   0  0  0  0  0  0  0  0  0  0  0  0
    3.7117    2.6400   -0.0326 H   0  0  0  0  0  0  0  0  0  0  0  0
   -3.8903   -2.5491    0.0270 H   0  0  0  0  0  0  0  0  0  0  0  0
    1.1714   -1.6225   -1.8766 H   0  0  0  0  0  0  0  0  0  0  0  0
    2.4207   -3.2123    2.6566 H   0  0  0  0  0  0  0  0  0  0  0  0
    3.2733   -4.3735    0.7095 H   0  0  0  0  0  0  0  0  0  0  0  0
    0.8599    5.9853   -1.5576 H   0  0  0  0  0  0  0  0  0  0  0  0
    0.7239    6.1967    0.2393 H   0  0  0  0  0  0  0  0  0  0  0  0
    2.0197    6.9949   -0.6724 H   0  0  0  0  0  0  0  0  0  0  0  0
    3.9426    6.1998   -0.4361 H   0  0  0  0  0  0  0  0  0  0  0  0
    4.2186    4.5952   -1.1413 H   0  0  0  0  0  0  0  0  0  0  0  0
    4.0844    4.8077    0.6551 H   0  0  0  0  0  0  0  0  0  0  0  0
   -6.0920   -2.2242    0.7292 H   0  0  0  0  0  0  0  0  0  0  0  0
   -5.9527   -2.4430   -1.0426 H   0  0  0  0  0  0  0  0  0  0  0  0
   -7.3569   -1.6517   -0.3465 H   0  0  0  0  0  0  0  0  0  0  0  0
   -6.2464    1.4173    0.2929 H   0  0  0  0  0  0  0  0  0  0  0  0
   -7.4528    0.4981   -0.5922 H   0  0  0  0  0  0  0  0  0  0  0  0
   -6.1216    1.2179   -1.4824 H   0  0  0  0  0  0  0  0  0  0  0  0
    1.3872   -0.6935    4.5466 H   0  0  0  0  0  0  0  0  0  0  0  0
  1 11  1  0  0  0  0
  1 12  1  0  0  0  0
  2 29  1  0  0  0  0
  2 54  1  0  0  0  0
  3 29  2  0  0  0  0
  4 32  1  0  0  0  0
  5 32  2  0  0  0  0
  6 18  2  0  0  0  0
  6 27  1  0  0  0  0
  6 28  1  0  0  0  0
  7 19  1  0  0  0  0
  7 30  1  0  0  0  0
  7 31  1  0  0  0  0
  8  9  2  0  0  0  0
  8 10  1  0  0  0  0
  8 13  1  0  0  0  0
  9 11  1  0  0  0  0
  9 14  1  0  0  0  0
 10 12  2  0  0  0  0
 10 15  1  0  0  0  0
 11 16  2  0  0  0  0
 12 17  1  0  0  0  0
 13 20  2  0  0  0  0
 13 23  1  0  0  0  0
 14 21  2  0  0  0  0
 14 33  1  0  0  0  0
 15 22  2  0  0  0  0
 15 34  1  0  0  0  0
 16 18  1  0  0  0  0
 16 35  1  0  0  0  0
 17 19  2  0  0  0  0
 17 36  1  0  0  0  0
 18 21  1  0  0  0  0
 19 22  1  0  0  0  0
 20 25  1  0  0  0  0
 20 29  1  0  0  0  0
 21 37  1  0  0  0  0
 22 38  1  0  0  0  0
 23 24  2  0  0  0  0
 23 39  1  0  0  0  0
 24 26  1  0  0  0  0
 24 32  1  0  0  0  0
 25 26  2  0  0  0  0
 25 40  1  0  0  0  0
 26 41  1  0  0  0  0
 27 42  1  0  0  0  0
 27 43  1  0  0  0  0
 27 44  1  0  0  0  0
 28 45  1  0  0  0  0
 28 46  1  0  0  0  0
 28 47  1  0  0  0  0
 30 48  1  0  0  0  0
 30 49  1  0  0  0  0
 30 50  1  0  0  0  0
 31 51  1  0  0  0  0
 31 52  1  0  0  0  0
 31 53  1  0  0  0  0
M  CHG  2   4  -1   6   1
M  END
> <PUBCHEM_COMPOUND_CID>
2762604

> <PUBCHEM_CONFORMER_RMSD>
0.8

> <PUBCHEM_CONFORMER_DIVERSEORDER>
1
2

> <PUBCHEM_MMFF94_PARTIAL_CHARGES>
41
1 -0.16
10 0.03
11 0.08
12 0.08
13 0.03
14 -0.15
15 -0.15
16 -0.14
17 -0.15
18 0.37
19 0.1
2 -0.65
20 0.09
21 -0.14
22 -0.15
23 -0.15
24 -0.18
25 -0.15
26 -0.15
27 0.35
28 0.35
29 0.63
3 -0.57
30 0.37
31 0.37
32 0.98
33 0.15
34 0.15
35 0.15
36 0.15
37 0.15
38 0.15
39 0.15
4 -0.9
40 0.15
41 0.15
5 -0.9
54 0.5
6 -0.09
7 -0.84
8 -0.06

> <PUBCHEM_EFFECTIVE_ROTOR_COUNT>
4

> <PUBCHEM_PHARMACOPHORE_FEATURES>
12
1 1 acceptor
1 2 acceptor
1 3 acceptor
1 4 acceptor
1 5 acceptor
1 7 cation
3 2 3 29 anion
3 4 5 32 anion
6 1 8 9 10 11 12 rings
6 10 12 15 17 19 22 rings
6 13 20 23 24 25 26 rings
6 9 11 14 16 18 21 rings

> <PUBCHEM_HEAVY_ATOM_COUNT>
32

> <PUBCHEM_ATOM_DEF_STEREO_COUNT>
0

> <PUBCHEM_ATOM_UDEF_STEREO_COUNT>
0

> <PUBCHEM_BOND_DEF_STEREO_COUNT>
0

> <PUBCHEM_BOND_UDEF_STEREO_COUNT>
0

> <PUBCHEM_ISOTOPIC_ATOM_COUNT>
0

> <PUBCHEM_COMPONENT_COUNT>
1

> <PUBCHEM_CACTVS_TAUTO_COUNT>
1

> <PUBCHEM_CONFORMER_ID>
002A276C00000001

> <PUBCHEM_MMFF94_ENERGY>
135.378

> <PUBCHEM_FEATURE_SELFOVERLAP>
61.076

> <PUBCHEM_SHAPE_FINGERPRINT>
10050765 1 18409447008589867501
10411042 1 18193270793758497023
10721379 63 18199769031932036703
11297010 23 18265878311494093701
11421498 54 17700997658582409003
11488393 25 18267037204627546906
11991303 11 17322667934582977580
12160290 23 17032471146483446897
12553582 1 18048319938380619443
12788726 201 17468773887365968739
13009979 54 17844538712567670115
13140716 1 18046057422491960697
13757389 114 17333385501484070173
138480 1 18337104579719008125
14790565 3 17975694219001651605
15324884 4 17625226768268214047
15664445 248 18410292506059199298
15878777 1 16342326617127833186
15927050 60 17832140898683737872
1813 80 18197778800011887195
20028762 73 18268988867899756788
20600515 1 17906146491865501089
21033650 10 17326922585654368374
21049683 118 17473236143950216505
21133410 32 16302377000099167146
21133665 82 18046345499461588196
21304303 282 8211846001272530625
23559900 14 18411696548691917183
255183 451 18200599099098345511
3411729 13 18188762981116232505
376196 1 18045215200769028489
38695281 34 18050565441418691053
394222 165 18045203093256150297
4017518 198 18057048124402891636
5219985 13 17902790009558047037
57527358 35 15480736064988174524
57527585 21 17181433119691642638
621550 5 17629194910165163506
6376802 90 16758043996843135310
6669772 16 18054520363490661036
6700243 42 17267812879025478382
9841814 1 18114731647631371851

> <PUBCHEM_SHAPE_MULTIPOLES>
619.24
8.56
7.72
2.06
18.09
0.13
-1.42
7.64
2.23
-13.3
3.91
-1.64
-3.33
0.69

> <PUBCHEM_SHAPE_SELFOVERLAP>
1370.089

> <PUBCHEM_SHAPE_VOLUME>
332.3

> <PUBCHEM_COORDINATE_TYPE>
2
5
10

$$$$
